<?xml version="1.0" encoding="UTF-8"?>

<!-- generated on 2023-11-27 17:23:08 by Eclipse SUMO netedit Version 1.17.0
<configuration xmlns:xsi="http://www.w3.org/2001/XMLSchema-instance" xsi:noNamespaceSchemaLocation="http://sumo.dlr.de/xsd/netconvertConfiguration.xsd">

    <input>
        <sumo-net-file value="D:\CyberCarSimulation_SUMO\SumoCurveLane\sumo_net_curve\merge614.net.xml"/>
    </input>

    <output>
        <output-file value="D:\CyberCarSimulation_SUMO\SumoCurveLane\sumo_net_curve\merge614.net.xml"/>
    </output>

    <processing>
        <geometry.min-radius.fix.railways value="false"/>
        <geometry.max-grade.fix value="false"/>
        <offset.disable-normalization value="true"/>
        <lefthand value="0"/>
    </processing>

    <junctions>
        <no-turnarounds value="true"/>
        <junctions.corner-detail value="5"/>
        <junctions.limit-turn-speed value="5.50"/>
        <rectangular-lane-cut value="0"/>
    </junctions>

    <pedestrian>
        <walkingareas value="0"/>
    </pedestrian>

</configuration>
-->

<net version="1.16" junctionCornerDetail="5" limitTurnSpeed="5.50" xmlns:xsi="http://www.w3.org/2001/XMLSchema-instance" xsi:noNamespaceSchemaLocation="http://sumo.dlr.de/xsd/net_file.xsd">

    <location netOffset="0.00,0.00" convBoundary="-1105.38,-517.33,467.00,562.67" origBoundary="-10000000000.00,-10000000000.00,10000000000.00,10000000000.00" projParameter="!"/>

    <edge id=":2_0" function="internal">
        <lane id=":2_0_0" index="0" disallow="pedestrian rail_fast" speed="4.08" length="5.84" width="4.00" shape="467.00,20.67 468.50,21.67 469.00,22.67 468.50,23.67 467.00,24.67"/>
    </edge>
    <edge id=":4_0" function="internal">
        <lane id=":4_0_0" index="0" disallow="pedestrian rail_fast" speed="4.08" length="5.84" width="4.00" shape="-75.00,-517.33 -74.00,-518.83 -73.00,-519.33 -72.00,-518.83 -71.00,-517.33"/>
    </edge>
    <edge id=":J0_0" function="internal">
        <lane id=":J0_0_0" index="0" disallow="pedestrian rail_fast" speed="13.89" length="0.10" width="4.00" shape="-193.00,12.67 -193.00,12.67"/>
        <lane id=":J0_0_1" index="1" disallow="pedestrian rail_fast" speed="13.89" length="0.10" width="4.00" shape="-193.00,16.67 -193.00,16.67"/>
        <lane id=":J0_0_2" index="2" disallow="pedestrian rail_fast" speed="13.89" length="0.10" width="4.00" shape="-193.00,20.67 -193.00,20.67"/>
    </edge>
    <edge id=":J1_0" function="internal">
        <lane id=":J1_0_0" index="0" disallow="pedestrian rail_fast" speed="13.89" length="0.10" width="4.00" shape="47.00,32.67 47.00,32.67"/>
        <lane id=":J1_0_1" index="1" disallow="pedestrian rail_fast" speed="13.89" length="0.10" width="4.00" shape="47.00,28.67 47.00,28.67"/>
        <lane id=":J1_0_2" index="2" disallow="pedestrian rail_fast" speed="13.89" length="0.10" width="4.00" shape="47.00,24.67 47.00,24.67"/>
    </edge>
    <edge id=":J3_0" function="internal">
        <lane id=":J3_0_0" index="0" disallow="pedestrian rail_fast" speed="50.00" length="0.10" width="4.00" shape="-63.00,-97.33 -63.00,-97.33"/>
        <lane id=":J3_0_1" index="1" disallow="pedestrian rail_fast" speed="50.00" length="0.10" width="4.00" shape="-67.00,-97.33 -67.00,-97.33"/>
        <lane id=":J3_0_2" index="2" disallow="pedestrian rail_fast" speed="50.00" length="0.10" width="4.00" shape="-71.00,-97.33 -71.00,-97.33"/>
    </edge>
    <edge id=":J4_0" function="internal">
        <lane id=":J4_0_0" index="0" disallow="pedestrian rail_fast" speed="4.08" length="5.84" width="4.00" shape="-71.00,562.67 -72.00,564.17 -73.00,564.67 -74.00,564.17 -75.00,562.67"/>
    </edge>
    <edge id=":J5_0" function="internal">
        <lane id=":J5_0_0" index="0" disallow="pedestrian rail_fast" speed="13.89" length="0.10" width="4.00" shape="-83.00,142.67 -83.00,142.67"/>
        <lane id=":J5_0_1" index="1" disallow="pedestrian rail_fast" speed="13.89" length="0.10" width="4.00" shape="-79.00,142.67 -79.00,142.67"/>
        <lane id=":J5_0_2" index="2" disallow="pedestrian rail_fast" speed="13.89" length="0.10" width="4.00" shape="-75.00,142.67 -75.00,142.67"/>
    </edge>
    <edge id=":J8_0" function="internal">
        <lane id=":J8_0_0" index="0" speed="13.89" length="57.42" width="4.00" shape="-578.73,32.67 -592.15,34.77 -603.64,41.06 -613.21,51.54 -620.84,66.21"/>
        <lane id=":J8_0_1" index="1" speed="13.89" length="62.37" width="4.00" shape="-578.73,28.67 -593.40,30.93 -605.94,37.73 -616.35,49.05 -624.63,64.90"/>
        <lane id=":J8_0_2" index="2" speed="13.89" length="64.92" width="4.00" shape="-578.73,24.67 -592.80,27.18 -605.15,34.73 -615.75,47.30 -624.63,64.90"/>
    </edge>
    <edge id=":J8_3" function="internal">
        <lane id=":J8_3_0" index="0" speed="13.89" length="77.41" width="4.00" shape="-632.19,62.27 -621.45,40.57 -608.95,25.07 -594.72,15.77 -578.73,12.67"/>
        <lane id=":J8_3_1" index="1" speed="13.89" length="72.48" width="4.00" shape="-628.41,63.58 -618.30,43.06 -606.65,28.40 -593.46,19.60 -578.73,16.67"/>
        <lane id=":J8_3_2" index="2" speed="13.89" length="69.86" width="4.00" shape="-628.41,63.58 -618.90,44.81 -607.45,31.40 -594.06,23.35 -578.73,20.67"/>
    </edge>
    <edge id=":node0_0" function="internal">
        <lane id=":node0_0_0" index="0" disallow="pedestrian rail_fast" speed="10.67" length="25.80" width="4.00" shape="-83.00,48.67 -84.00,41.67 -87.00,36.67 -92.00,33.67 -99.00,32.67"/>
    </edge>
    <edge id=":node0_1" function="internal">
        <lane id=":node0_1_0" index="0" disallow="pedestrian rail_fast" speed="13.89" length="52.00" width="4.00" shape="-79.00,48.67 -79.00,-3.33"/>
    </edge>
    <edge id=":node0_2" function="internal">
        <lane id=":node0_2_0" index="0" disallow="pedestrian rail_fast" speed="13.89" length="45.16" width="4.00" shape="-75.00,48.67 -73.25,36.42 -68.00,27.67 -59.25,22.42 -47.00,20.67"/>
    </edge>
    <edge id=":node0_3" function="internal">
        <lane id=":node0_3_0" index="0" disallow="pedestrian rail_fast" speed="10.67" length="25.80" width="4.00" shape="-47.00,32.67 -54.00,33.67 -59.00,36.67 -62.00,41.67 -63.00,48.67"/>
    </edge>
    <edge id=":node0_4" function="internal">
        <lane id=":node0_4_0" index="0" disallow="pedestrian rail_fast" speed="13.89" length="52.00" width="4.00" shape="-47.00,28.67 -99.00,28.67"/>
    </edge>
    <edge id=":node0_5" function="internal">
        <lane id=":node0_5_0" index="0" disallow="pedestrian rail_fast" speed="13.89" length="45.16" width="4.00" shape="-47.00,24.67 -59.25,22.92 -68.00,17.67 -73.25,8.92 -75.00,-3.33"/>
    </edge>
    <edge id=":node0_6" function="internal">
        <lane id=":node0_6_0" index="0" disallow="pedestrian rail_fast" speed="10.67" length="25.80" width="4.00" shape="-63.00,-3.33 -62.00,3.67 -59.00,8.67 -54.00,11.67 -47.00,12.67"/>
    </edge>
    <edge id=":node0_7" function="internal">
        <lane id=":node0_7_0" index="0" disallow="pedestrian rail_fast" speed="31.95" length="52.00" width="4.00" shape="-67.00,-3.33 -67.00,48.67"/>
    </edge>
    <edge id=":node0_8" function="internal">
        <lane id=":node0_8_0" index="0" disallow="pedestrian rail_fast" speed="13.97" length="45.16" width="4.00" shape="-71.00,-3.33 -72.75,8.92 -78.00,17.67 -86.75,22.92 -99.00,24.67"/>
    </edge>
    <edge id=":node0_9" function="internal">
        <lane id=":node0_9_0" index="0" disallow="pedestrian rail_fast" speed="10.67" length="25.80" width="4.00" shape="-99.00,12.67 -92.00,11.67 -87.00,8.67 -84.00,3.67 -83.00,-3.33"/>
    </edge>
    <edge id=":node0_10" function="internal">
        <lane id=":node0_10_0" index="0" disallow="pedestrian rail_fast" speed="13.89" length="52.00" width="4.00" shape="-99.00,16.67 -47.00,16.67"/>
    </edge>
    <edge id=":node0_11" function="internal">
        <lane id=":node0_11_0" index="0" disallow="pedestrian rail_fast" speed="13.89" length="45.16" width="4.00" shape="-99.00,20.67 -86.75,22.42 -78.00,27.67 -72.75,36.42 -71.00,48.67"/>
    </edge>

    <edge id="-E0" from="node0" to="J4" priority="-1" length="500.00">
        <lane id="-E0_0" index="0" allow="pedestrian" speed="13.89" length="500.00" width="2.00" shape="-58.00,48.67 -58.00,562.67"/>
        <lane id="-E0_1" index="1" allow="bicycle" speed="13.89" length="500.00" width="2.00" shape="-60.00,48.67 -60.00,562.67"/>
        <lane id="-E0_2" index="2" disallow="pedestrian rail_fast" speed="13.89" length="500.00" width="4.00" shape="-63.00,48.67 -63.00,562.67"/>
        <lane id="-E0_3" index="3" disallow="pedestrian rail_fast" speed="13.89" length="500.00" width="4.00" shape="-67.00,48.67 -67.00,562.67"/>
        <lane id="-E0_4" index="4" disallow="pedestrian rail_fast" speed="13.89" length="500.00" width="4.00" shape="-71.00,48.67 -71.00,562.67"/>
    </edge>
    <edge id="-E3" from="J8" to="J2" priority="-1" shape="-613.00,26.58 -623.05,55.53 -633.10,80.78 -643.15,102.48 -653.19,120.79 -663.24,135.87 -673.29,147.88 -683.34,156.98 -693.39,163.32 -703.44,167.06 -713.49,168.37 -723.53,167.39 -733.58,164.28 -743.63,159.22 -753.68,152.34 -763.73,143.81 -773.78,133.79 -783.83,122.44 -793.87,109.91 -803.92,96.36 -813.97,81.96 -824.02,66.85 -834.07,51.20 -844.12,35.16 -854.17,18.89 -864.21,2.56 -874.26,-13.69 -884.31,-29.69 -894.36,-45.29 -904.41,-60.32 -914.46,-74.63 -924.51,-88.07 -934.55,-100.47 -944.60,-111.67 -954.65,-121.52 -964.70,-129.86 -974.75,-136.53 -984.80,-141.38 -994.85,-144.24 -1004.89,-144.96 -1014.94,-143.37 -1024.99,-139.33 -1035.04,-132.67 -1045.09,-123.24 -1055.14,-110.88 -1065.19,-95.42 -1075.23,-76.71 -1085.28,-54.60 -1095.33,-28.92 -1105.38,0.48">
        <lane id="-E3_0" index="0" speed="13.89" length="775.92" width="4.00" shape="-620.84,66.21 -627.59,83.15 -637.79,105.19 -648.05,123.90 -658.43,139.47 -668.95,152.05 -679.70,161.78 -690.71,168.73 -701.99,172.92 -713.39,174.41 -724.72,173.30 -735.83,169.86 -746.69,164.40 -757.33,157.12 -767.80,148.23 -778.15,137.91 -788.42,126.31 -798.62,113.57 -808.79,99.86 -818.93,85.34 -829.04,70.13 -839.14,54.41 -849.21,38.33 -859.28,22.04 -869.32,5.71 -879.35,-10.52 -889.37,-26.47 -899.38,-42.00 -909.36,-56.93 -919.32,-71.11 -929.25,-84.38 -939.12,-96.58 -948.94,-107.52 -958.67,-117.06 -968.28,-125.04 -977.73,-131.30 -986.94,-135.75 -995.90,-138.30 -1004.63,-138.93 -1013.33,-137.55 -1022.19,-133.99 -1031.30,-127.95 -1040.69,-119.14 -1050.28,-107.34 -1060.02,-92.36 -1069.85,-74.05 -1079.75,-52.26 -1089.69,-26.86 -1101.67,8.17"/>
        <lane id="-E3_1" index="1" speed="13.89" length="775.92" width="4.00" shape="-624.63,64.90 -631.26,81.57 -641.36,103.38 -651.48,121.83 -661.64,137.07 -671.84,149.27 -682.13,158.58 -692.50,165.12 -702.96,169.01 -713.46,170.38 -723.93,169.36 -734.33,166.14 -744.65,160.95 -754.90,153.93 -765.09,145.28 -775.24,135.16 -785.36,123.73 -795.45,111.13 -805.54,97.53 -815.62,83.09 -825.69,67.94 -835.76,52.27 -845.82,36.22 -855.87,19.94 -865.91,3.61 -875.96,-12.63 -886.00,-28.62 -896.03,-44.19 -906.06,-59.19 -916.08,-73.46 -926.09,-86.84 -936.07,-99.17 -946.05,-110.29 -955.99,-120.03 -965.89,-128.25 -975.74,-134.79 -985.51,-139.50 -995.20,-142.26 -1004.80,-142.95 -1014.40,-141.43 -1024.06,-137.55 -1033.79,-131.10 -1043.62,-121.87 -1053.52,-109.70 -1063.47,-94.40 -1073.44,-75.82 -1083.44,-53.82 -1093.45,-28.23 -1105.45,6.88"/>
    </edge>
    <edge id="E0" from="J4" to="J5" priority="-1" length="400.00">
        <lane id="E0_0" index="0" allow="pedestrian" speed="13.89" length="400.00" width="2.00" shape="-88.00,562.67 -88.00,142.67"/>
        <lane id="E0_1" index="1" allow="bicycle" speed="13.89" length="400.00" width="2.00" shape="-86.00,562.67 -86.00,142.67"/>
        <lane id="E0_2" index="2" disallow="pedestrian rail_fast" speed="13.89" length="400.00" width="4.00" shape="-83.00,562.67 -83.00,142.67"/>
        <lane id="E0_3" index="3" disallow="pedestrian rail_fast" speed="13.89" length="400.00" width="4.00" shape="-79.00,562.67 -79.00,142.67"/>
        <lane id="E0_4" index="4" disallow="pedestrian rail_fast" speed="13.89" length="400.00" width="4.00" shape="-75.00,562.67 -75.00,142.67"/>
    </edge>
    <edge id="E0.400" from="J5" to="node0" priority="-1" length="100.00">
        <lane id="E0.400_0" index="0" allow="pedestrian" speed="13.89" length="100.00" width="2.00" shape="-88.00,142.67 -88.00,48.67"/>
        <lane id="E0.400_1" index="1" allow="bicycle" speed="13.89" length="100.00" width="2.00" shape="-86.00,142.67 -86.00,48.67"/>
        <lane id="E0.400_2" index="2" disallow="pedestrian rail_fast" speed="13.89" length="100.00" width="4.00" shape="-83.00,142.67 -83.00,48.67" changeRight="vip"/>
        <lane id="E0.400_3" index="3" disallow="pedestrian rail_fast" speed="13.89" length="100.00" width="4.00" shape="-79.00,142.67 -79.00,48.67" changeLeft="vip" changeRight="vip"/>
        <lane id="E0.400_4" index="4" disallow="pedestrian rail_fast" speed="13.89" length="100.00" width="4.00" shape="-75.00,142.67 -75.00,48.67" changeLeft="vip" changeRight="vip"/>
    </edge>
    <edge id="E1" from="node0" to="J8" priority="-1">
        <lane id="E1_0" index="0" allow="pedestrian" speed="13.89" length="479.73" width="2.00" shape="-99.00,37.67 -578.73,37.67"/>
        <lane id="E1_1" index="1" allow="bicycle" speed="13.89" length="479.73" width="2.00" shape="-99.00,35.67 -578.73,35.67"/>
        <lane id="E1_2" index="2" speed="13.89" length="479.73" width="4.00" shape="-99.00,32.67 -578.73,32.67"/>
        <lane id="E1_3" index="3" speed="13.89" length="479.73" width="4.00" shape="-99.00,28.67 -578.73,28.67"/>
        <lane id="E1_4" index="4" speed="13.89" length="479.73" width="4.00" shape="-99.00,24.67 -578.73,24.67"/>
    </edge>
    <edge id="E2" from="J8" to="J0" priority="-1">
        <lane id="E2_0" index="0" allow="pedestrian" speed="13.89" length="385.73" width="2.00" shape="-578.73,7.67 -193.00,7.67"/>
        <lane id="E2_1" index="1" allow="bicycle" speed="13.89" length="385.73" width="2.00" shape="-578.73,9.67 -193.00,9.67"/>
        <lane id="E2_2" index="2" speed="13.89" length="385.73" width="4.00" shape="-578.73,12.67 -193.00,12.67"/>
        <lane id="E2_3" index="3" speed="13.89" length="385.73" width="4.00" shape="-578.73,16.67 -193.00,16.67"/>
        <lane id="E2_4" index="4" speed="13.89" length="385.73" width="4.00" shape="-578.73,20.67 -193.00,20.67"/>
    </edge>
    <edge id="E3" from="J2" to="J8" priority="-1" shape="-1105.38,0.48 -1095.33,-28.92 -1085.28,-54.60 -1075.23,-76.71 -1065.19,-95.42 -1055.14,-110.88 -1045.09,-123.24 -1035.04,-132.67 -1024.99,-139.33 -1014.94,-143.37 -1004.89,-144.96 -994.85,-144.24 -984.80,-141.38 -974.75,-136.53 -964.70,-129.86 -954.65,-121.52 -944.60,-111.67 -934.55,-100.47 -924.51,-88.07 -914.46,-74.63 -904.41,-60.32 -894.36,-45.29 -884.31,-29.69 -874.26,-13.69 -864.21,2.56 -854.17,18.89 -844.12,35.16 -834.07,51.20 -824.02,66.85 -813.97,81.96 -803.92,96.36 -793.87,109.91 -783.83,122.44 -773.78,133.79 -763.73,143.81 -753.68,152.34 -743.63,159.22 -733.58,164.28 -723.53,167.39 -713.49,168.37 -703.44,167.06 -693.39,163.32 -683.34,156.98 -673.29,147.88 -663.24,135.87 -653.19,120.79 -643.15,102.48 -633.10,80.78 -623.05,55.53 -613.00,26.58">
        <lane id="E3_0" index="0" speed="13.89" length="775.96" width="4.00" shape="-1113.02,4.29 -1100.97,-30.98 -1090.81,-56.94 -1080.61,-79.37 -1070.36,-98.48 -1060.00,-114.42 -1049.49,-127.34 -1038.78,-137.39 -1027.79,-144.67 -1016.55,-149.19 -1005.15,-150.99 -993.80,-150.18 -982.66,-147.01 -971.77,-141.76 -961.12,-134.68 -950.63,-125.98 -940.26,-115.82 -929.98,-104.36 -919.77,-91.76 -909.60,-78.15 -899.46,-63.71 -889.34,-48.58 -879.25,-32.91 -869.17,-16.86 -859.10,-0.59 -849.06,15.74 -839.03,31.99 -829.00,47.99 -819.00,63.57 -809.01,78.58 -799.05,92.86 -789.12,106.25 -779.24,118.57 -769.41,129.67 -759.66,139.39 -750.03,147.56 -740.57,154.04 -731.33,158.70 -722.34,161.48 -713.59,162.33 -704.89,161.20 -696.07,157.91 -686.98,152.18 -677.63,143.71 -668.05,132.27 -658.33,117.68 -648.51,99.77 -638.61,78.41 -632.19,62.27"/>
        <lane id="E3_1" index="1" speed="13.89" length="775.96" width="4.00" shape="-1109.24,5.58 -1097.21,-29.61 -1087.12,-55.38 -1077.02,-77.60 -1066.91,-96.44 -1056.76,-112.06 -1046.56,-124.61 -1036.29,-134.24 -1025.92,-141.11 -1015.48,-145.31 -1004.98,-146.97 -994.50,-146.22 -984.09,-143.26 -973.76,-138.27 -963.51,-131.47 -953.31,-123.01 -943.15,-113.05 -933.03,-101.77 -922.93,-89.30 -912.84,-75.80 -902.76,-61.45 -892.69,-46.39 -882.62,-30.76 -872.56,-14.75 -862.51,1.51 -852.47,17.84 -842.42,34.10 -832.38,50.13 -822.35,65.76 -812.32,80.83 -802.30,95.19 -792.29,108.69 -782.30,121.15 -772.32,132.42 -762.37,142.34 -752.46,150.75 -742.61,157.49 -732.83,162.42 -723.13,165.42 -713.52,166.36 -703.92,165.11 -694.28,161.52 -684.55,155.38 -674.74,146.49 -664.84,134.67 -654.90,119.75 -644.94,101.58 -634.94,79.99 -628.41,63.58"/>
    </edge>
    <edge id="edge0-2" from="node0" to="2" priority="-1" length="500.00">
        <lane id="edge0-2_0" index="0" allow="pedestrian" speed="13.89" length="500.00" width="2.00" shape="-47.00,7.67 467.00,7.67"/>
        <lane id="edge0-2_1" index="1" allow="bicycle" speed="13.89" length="500.00" width="2.00" shape="-47.00,9.67 467.00,9.67"/>
        <lane id="edge0-2_2" index="2" disallow="pedestrian rail_fast" speed="13.89" length="500.00" width="4.00" shape="-47.00,12.67 467.00,12.67"/>
        <lane id="edge0-2_3" index="3" disallow="pedestrian rail_fast" speed="13.89" length="500.00" width="4.00" shape="-47.00,16.67 467.00,16.67"/>
        <lane id="edge0-2_4" index="4" disallow="pedestrian rail_fast" speed="13.89" length="500.00" width="4.00" shape="-47.00,20.67 467.00,20.67"/>
    </edge>
    <edge id="edge0-4" from="node0" to="4" priority="-1" length="500.00">
        <lane id="edge0-4_0" index="0" allow="pedestrian" speed="13.89" length="500.00" width="2.00" shape="-88.00,-3.33 -88.00,-517.33"/>
        <lane id="edge0-4_1" index="1" allow="bicycle" speed="13.89" length="500.00" width="2.00" shape="-86.00,-3.33 -86.00,-517.33"/>
        <lane id="edge0-4_2" index="2" disallow="pedestrian rail_fast" speed="13.89" length="500.00" width="4.00" shape="-83.00,-3.33 -83.00,-517.33"/>
        <lane id="edge0-4_3" index="3" disallow="pedestrian rail_fast" speed="13.89" length="500.00" width="4.00" shape="-79.00,-3.33 -79.00,-517.33"/>
        <lane id="edge0-4_4" index="4" disallow="pedestrian rail_fast" speed="13.89" length="500.00" width="4.00" shape="-75.00,-3.33 -75.00,-517.33"/>
    </edge>
    <edge id="edge1-0.232" from="J0" to="node0" priority="-1">
        <lane id="edge1-0.232_0" index="0" allow="pedestrian" speed="13.89" length="94.00" width="2.00" shape="-193.00,7.67 -99.00,7.67"/>
        <lane id="edge1-0.232_1" index="1" allow="bicycle" speed="13.89" length="94.00" width="2.00" shape="-193.00,9.67 -99.00,9.67"/>
        <lane id="edge1-0.232_2" index="2" disallow="pedestrian rail_fast" speed="13.89" length="94.00" width="4.00" shape="-193.00,12.67 -99.00,12.67" changeLeft="vip" changeRight="vip"/>
        <lane id="edge1-0.232_3" index="3" disallow="pedestrian rail_fast" speed="13.89" length="94.00" width="4.00" shape="-193.00,16.67 -99.00,16.67" changeLeft="vip" changeRight="vip"/>
        <lane id="edge1-0.232_4" index="4" disallow="pedestrian rail_fast" speed="13.89" length="94.00" width="4.00" shape="-193.00,20.67 -99.00,20.67" changeLeft="vip" changeRight="vip"/>
    </edge>
    <edge id="edge2-0" from="2" to="J1" priority="-1" length="400.00">
        <lane id="edge2-0_0" index="0" allow="pedestrian" speed="13.89" length="400.00" width="2.00" shape="467.00,37.67 47.00,37.67"/>
        <lane id="edge2-0_1" index="1" allow="bicycle" speed="13.89" length="400.00" width="2.00" shape="467.00,35.67 47.00,35.67"/>
        <lane id="edge2-0_2" index="2" disallow="pedestrian rail_fast" speed="13.89" length="400.00" width="4.00" shape="467.00,32.67 47.00,32.67"/>
        <lane id="edge2-0_3" index="3" disallow="pedestrian rail_fast" speed="13.89" length="400.00" width="4.00" shape="467.00,28.67 47.00,28.67"/>
        <lane id="edge2-0_4" index="4" disallow="pedestrian rail_fast" speed="13.89" length="400.00" width="4.00" shape="467.00,24.67 47.00,24.67"/>
    </edge>
    <edge id="edge2-0.214" from="J1" to="node0" priority="-1" length="100.00">
        <lane id="edge2-0.214_0" index="0" allow="pedestrian" speed="13.89" length="100.00" width="2.00" shape="47.00,37.67 -47.00,37.67"/>
        <lane id="edge2-0.214_1" index="1" allow="bicycle" speed="13.89" length="100.00" width="2.00" shape="47.00,35.67 -47.00,35.67"/>
        <lane id="edge2-0.214_2" index="2" disallow="pedestrian rail_fast" speed="13.89" length="100.00" width="4.00" shape="47.00,32.67 -47.00,32.67" changeLeft="vip" changeRight="vip"/>
        <lane id="edge2-0.214_3" index="3" disallow="pedestrian rail_fast" speed="13.89" length="100.00" width="4.00" shape="47.00,28.67 -47.00,28.67" changeRight="vip"/>
        <lane id="edge2-0.214_4" index="4" disallow="pedestrian rail_fast" speed="13.89" length="100.00" width="4.00" shape="47.00,24.67 -47.00,24.67" changeLeft="vip" changeRight="vip"/>
    </edge>
    <edge id="edge4-0" from="4" to="J3" priority="-1" length="400.00">
        <lane id="edge4-0_0" index="0" allow="pedestrian" speed="50.00" length="400.00" width="2.00" shape="-58.00,-517.33 -58.00,-97.33"/>
        <lane id="edge4-0_1" index="1" allow="bicycle" speed="50.00" length="400.00" width="2.00" shape="-60.00,-517.33 -60.00,-97.33"/>
        <lane id="edge4-0_2" index="2" disallow="pedestrian rail_fast" speed="50.00" length="400.00" width="4.00" shape="-63.00,-517.33 -63.00,-97.33"/>
        <lane id="edge4-0_3" index="3" disallow="pedestrian rail_fast" speed="50.00" length="400.00" width="4.00" shape="-67.00,-517.33 -67.00,-97.33"/>
        <lane id="edge4-0_4" index="4" disallow="pedestrian rail_fast" speed="50.00" length="400.00" width="4.00" shape="-71.00,-517.33 -71.00,-97.33"/>
    </edge>
    <edge id="edge4-0.222" from="J3" to="node0" priority="-1" length="100.00">
        <lane id="edge4-0.222_0" index="0" allow="pedestrian" speed="50.00" length="100.00" width="2.00" shape="-58.00,-97.33 -58.00,-3.33"/>
        <lane id="edge4-0.222_1" index="1" allow="bicycle" speed="50.00" length="100.00" width="2.00" shape="-60.00,-97.33 -60.00,-3.33"/>
        <lane id="edge4-0.222_2" index="2" disallow="pedestrian rail_fast" speed="50.00" length="100.00" width="4.00" shape="-63.00,-97.33 -63.00,-3.33" changeLeft="vip" changeRight="vip"/>
        <lane id="edge4-0.222_3" index="3" disallow="pedestrian rail_fast" speed="50.00" length="100.00" width="4.00" shape="-67.00,-97.33 -67.00,-3.33" changeLeft="vip" changeRight="vip"/>
        <lane id="edge4-0.222_4" index="4" disallow="pedestrian rail_fast" speed="50.00" length="100.00" width="4.00" shape="-71.00,-97.33 -71.00,-3.33" changeRight="vip"/>
    </edge>

    <junction id="2" type="priority" x="467.00" y="22.67" incLanes="edge0-2_0 edge0-2_1 edge0-2_2 edge0-2_3 edge0-2_4" intLanes=":2_0_0" shape="467.00,22.67 467.00,6.67 467.00,22.67">
        <request index="0" response="0" foes="0" cont="0"/>
    </junction>
    <junction id="4" type="priority" x="-73.00" y="-517.33" incLanes="edge0-4_0 edge0-4_1 edge0-4_2 edge0-4_3 edge0-4_4" intLanes=":4_0_0" shape="-73.00,-517.33 -89.00,-517.33 -73.00,-517.33">
        <request index="0" response="0" foes="0" cont="0"/>
    </junction>
    <junction id="J0" type="priority" x="-193.00" y="22.67" incLanes="E2_0 E2_1 E2_2 E2_3 E2_4" intLanes=":J0_0_0 :J0_0_1 :J0_0_2" shape="-193.00,22.67 -193.00,6.67 -193.00,22.67">
        <request index="0" response="000" foes="000" cont="0"/>
        <request index="1" response="000" foes="000" cont="0"/>
        <request index="2" response="000" foes="000" cont="0"/>
    </junction>
    <junction id="J1" type="priority" x="47.00" y="22.67" incLanes="edge2-0_0 edge2-0_1 edge2-0_2 edge2-0_3 edge2-0_4" intLanes=":J1_0_0 :J1_0_1 :J1_0_2" shape="47.00,38.67 47.00,22.67 47.00,38.67">
        <request index="0" response="000" foes="000" cont="0"/>
        <request index="1" response="000" foes="000" cont="0"/>
        <request index="2" response="000" foes="000" cont="0"/>
    </junction>
    <junction id="J2" type="dead_end" x="-1105.38" y="6.90" incLanes="-E3_0 -E3_1" intLanes="" shape="-1107.34,6.23 -1099.78,8.82 -1107.34,6.23"/>
    <junction id="J3" type="priority" x="-73.00" y="-97.33" incLanes="edge4-0_0 edge4-0_1 edge4-0_2 edge4-0_3 edge4-0_4" intLanes=":J3_0_0 :J3_0_1 :J3_0_2" shape="-73.00,-97.33 -57.00,-97.33 -73.00,-97.33">
        <request index="0" response="000" foes="000" cont="0"/>
        <request index="1" response="000" foes="000" cont="0"/>
        <request index="2" response="000" foes="000" cont="0"/>
    </junction>
    <junction id="J4" type="priority" x="-73.00" y="562.67" incLanes="-E0_0 -E0_1 -E0_2 -E0_3 -E0_4" intLanes=":J4_0_0" shape="-73.00,562.67 -57.00,562.67 -73.00,562.67">
        <request index="0" response="0" foes="0" cont="0"/>
    </junction>
    <junction id="J5" type="priority" x="-73.00" y="142.67" incLanes="E0_0 E0_1 E0_2 E0_3 E0_4" intLanes=":J5_0_0 :J5_0_1 :J5_0_2" shape="-89.00,142.67 -73.00,142.67 -89.00,142.67">
        <request index="0" response="000" foes="000" cont="0"/>
        <request index="1" response="000" foes="000" cont="0"/>
        <request index="2" response="000" foes="000" cont="0"/>
    </junction>
    <junction id="J8" type="priority" x="-613.00" y="22.67" incLanes="E1_0 E1_1 E1_2 E1_3 E1_4 E3_0 E3_1" intLanes=":J8_0_0 :J8_0_1 :J8_0_2 :J8_3_0 :J8_3_1 :J8_3_2" shape="-578.73,38.67 -578.73,6.67 -589.57,8.20 -599.76,12.77 -609.31,20.41 -618.21,31.09 -626.47,44.83 -634.08,61.61 -618.95,66.87 -614.72,58.25 -609.49,51.20 -603.28,45.72 -596.09,41.80 -587.90,39.45" radius="30.00">
        <request index="0" response="000000" foes="000000" cont="0"/>
        <request index="1" response="000000" foes="000100" cont="0"/>
        <request index="2" response="000010" foes="000010" cont="0"/>
        <request index="3" response="000000" foes="000000" cont="0"/>
        <request index="4" response="000000" foes="000000" cont="0"/>
        <request index="5" response="000000" foes="000000" cont="0"/>
    </junction>
    <junction id="node0" type="priority" x="-73.00" y="22.67" incLanes="E0.400_0 E0.400_1 E0.400_2 E0.400_3 E0.400_4 edge2-0.214_0 edge2-0.214_1 edge2-0.214_2 edge2-0.214_3 edge2-0.214_4 edge4-0.222_0 edge4-0.222_1 edge4-0.222_2 edge4-0.222_3 edge4-0.222_4 edge1-0.232_0 edge1-0.232_1 edge1-0.232_2 edge1-0.232_3 edge1-0.232_4" intLanes=":node0_0_0 :node0_1_0 :node0_2_0 :node0_3_0 :node0_4_0 :node0_5_0 :node0_6_0 :node0_7_0 :node0_8_0 :node0_9_0 :node0_10_0 :node0_11_0" shape="-89.00,48.67 -57.00,48.67 -56.72,45.61 -55.89,43.11 -54.50,41.17 -52.56,39.78 -50.06,38.95 -47.00,38.67 -47.00,6.67 -50.06,6.39 -52.56,5.56 -54.50,4.17 -55.89,2.23 -56.72,-0.27 -57.00,-3.33 -89.00,-3.33 -89.28,-0.27 -90.11,2.23 -91.50,4.17 -93.44,5.56 -95.94,6.39 -99.00,6.67 -99.00,38.67 -95.94,38.95 -93.44,39.78 -91.50,41.17 -90.11,43.11 -89.28,45.61" radius="10.00">
        <request index="0"  response="000000000000" foes="000000000000" cont="0"/>
        <request index="1"  response="000000000000" foes="110100010000" cont="0"/>
        <request index="2"  response="000000000000" foes="100010110000" cont="0"/>
        <request index="3"  response="000000000000" foes="000000000000" cont="0"/>
        <request index="4"  response="000000000000" foes="100010000110" cont="0"/>
        <request index="5"  response="000000000000" foes="010110000100" cont="0"/>
        <request index="6"  response="000000000000" foes="000000000000" cont="0"/>
        <request index="7"  response="000000000000" foes="010000110100" cont="0"/>
        <request index="8"  response="000000000000" foes="110000100010" cont="0"/>
        <request index="9"  response="000000000000" foes="000000000000" cont="0"/>
        <request index="10" response="000000000000" foes="000110100010" cont="0"/>
        <request index="11" response="000000000000" foes="000100010110" cont="0"/>
    </junction>

    <connection from="-E0" to="E0" fromLane="4" toLane="4" via=":J4_0_0" dir="t" state="M"/>
    <connection from="E0" to="E0.400" fromLane="2" toLane="2" via=":J5_0_0" dir="s" state="M"/>
    <connection from="E0" to="E0.400" fromLane="3" toLane="3" via=":J5_0_1" dir="s" state="M"/>
    <connection from="E0" to="E0.400" fromLane="4" toLane="4" via=":J5_0_2" dir="s" state="M"/>
    <connection from="E0.400" to="E1" fromLane="2" toLane="2" pass="1" via=":node0_0_0" dir="r" state="M"/>
    <connection from="E0.400" to="edge0-4" fromLane="3" toLane="3" pass="1" via=":node0_1_0" dir="s" state="M"/>
    <connection from="E0.400" to="edge0-2" fromLane="4" toLane="4" pass="1" contPos="0.00" via=":node0_2_0" dir="l" state="M"/>
    <connection from="E1" to="-E3" fromLane="2" toLane="0" via=":J8_0_0" dir="r" state="M"/>
    <connection from="E1" to="-E3" fromLane="3" toLane="1" keepClear="0" via=":J8_0_1" dir="r" state="M"/>
    <connection from="E1" to="-E3" fromLane="4" toLane="1" via=":J8_0_2" dir="r" state="m"/>
    <connection from="E2" to="edge1-0.232" fromLane="2" toLane="2" via=":J0_0_0" dir="s" state="M"/>
    <connection from="E2" to="edge1-0.232" fromLane="3" toLane="3" via=":J0_0_1" dir="s" state="M"/>
    <connection from="E2" to="edge1-0.232" fromLane="4" toLane="4" via=":J0_0_2" dir="s" state="M"/>
    <connection from="E3" to="E2" fromLane="0" toLane="2" keepClear="0" via=":J8_3_0" dir="l" state="M"/>
    <connection from="E3" to="E2" fromLane="1" toLane="3" keepClear="0" via=":J8_3_1" dir="l" state="M"/>
    <connection from="E3" to="E2" fromLane="1" toLane="4" keepClear="0" via=":J8_3_2" dir="l" state="M"/>